/*---------------------------------------------------------------------------*\
| =========                 |                                                 |
| \\      /  F ield         | OpenFOAM: The Open Source CFD Toolbox           |
|  \\    /   O peration     | Version:  5.x                                   |
|   \\  /    A nd           | Web:      www.OpenFOAM.org                      |
|    \\/     M anipulation  |                                                 |
\*---------------------------------------------------------------------------*/
Build  : 5.x-197d9d3bf20a
Exec   : inferFoam
Date   : Nov 15 2018
Time   : 18:12:03
Host   : "eg-lrt10"
PID    : 19214
I/O    : uncollated
Case   : /home/eg/repos/oftrt/case
nProcs : 1
sigFpe : Enabling floating point exception trapping (FOAM_SIGFPE).
fileModificationChecking : Monitoring run-time modified files using timeStampMaster (fileModificationSkew 10)
allowSystemOperations : Allowing user-supplied system call operations

// * * * * * * * * * * * * * * * * * * * * * * * * * * * * * * * * * * * * * //
Create time

Create mesh for time = 0


PISO: Operating solver in PISO mode

Reading transportProperties

Reading field p

Reading field input_1

Reading field input_2

Reading field U

Reading/calculating face flux field phi


Starting time loop

Time = 0.005

inputs:-8.57321
inputs:1.01024
input_p_he:-8.57321
input_p_he:1.01024
uff:./data/mayer.uff
rounds:200








































































































































































































Average over 200 runs is 0.078108 ms.
uff inference finished.
Courant Number mean: 0 max: 0
smoothSolver:  Solving for Ux, Initial residual = 1, Final residual = 8.90511e-06, No Iterations 19
smoothSolver:  Solving for Uy, Initial residual = 0, Final residual = 0, No Iterations 0
DICPCG:  Solving for p, Initial residual = 1, Final residual = 0.0492854, No Iterations 12
time step continuity errors : sum local = 0.000466513, global = -1.79995e-19, cumulative = -1.79995e-19
DICPCG:  Solving for p, Initial residual = 0.590864, Final residual = 2.65225e-07, No Iterations 35
time step continuity errors : sum local = 2.74685e-09, global = -2.6445e-19, cumulative = -4.44444e-19
ExecutionTime = 1.22 s  ClockTime = 2 s

End

